*SPEF "ieee 1481-1999"
*DESIGN "axmul"
*DATE "11:11:11 Fri 11 11, 1111"
*VENDOR "OpenRCX"
*PROGRAM "Parallel Extraction"
*VERSION "1.0"
*DESIGN_FLOW "NAME_SCOPE LOCAL" "PIN_CAP NONE"
*DIVIDER /
*DELIMITER :
*BUS_DELIMITER []
*T_UNIT 1 NS
*C_UNIT 1 PF
*R_UNIT 1 OHM
*L_UNIT 1 HENRY

*NAME_MAP
*3 a[0]
*4 a[1]
*5 a[2]
*6 a[3]
*7 a[4]
*8 a[5]
*9 a[6]
*10 a[7]
*11 b[0]
*12 b[1]
*13 b[2]
*14 b[3]
*15 b[4]
*16 b[5]
*17 b[6]
*18 b[7]
*19 c[0]
*20 c[10]
*21 c[11]
*22 c[12]
*23 c[13]
*24 c[14]
*25 c[15]
*26 c[1]
*27 c[2]
*28 c[3]
*29 c[4]
*30 c[5]
*31 c[6]
*32 c[7]
*33 c[8]
*34 c[9]
*35 _000_
*36 _001_
*37 _002_
*38 _003_
*39 _004_
*40 _005_
*41 _006_
*42 _007_
*43 _008_
*44 _009_
*45 _010_
*46 _011_
*47 _012_
*48 _013_
*49 _014_
*50 _015_
*51 _016_
*52 _017_
*53 _018_
*54 _019_
*55 _020_
*56 _021_
*57 _022_
*58 _023_
*59 _024_
*60 _025_
*61 _026_
*62 _027_
*63 _028_
*64 _029_
*65 _030_
*66 _031_
*67 _032_
*68 _033_
*69 _034_
*70 _035_
*71 _036_
*72 _037_
*73 _038_
*74 _039_
*75 _040_
*76 _041_
*77 _042_
*78 _043_
*79 _044_
*80 _045_
*81 _046_
*82 _047_
*83 _048_
*84 _049_
*85 _050_
*86 _051_
*87 _052_
*88 _053_
*89 _054_
*90 _055_
*91 _056_
*92 _057_
*93 _058_
*94 _059_
*95 _060_
*96 _061_
*97 _062_
*98 _063_
*99 _064_
*100 _065_
*101 _066_
*102 _067_
*103 _068_
*104 _069_
*105 _070_
*106 _071_
*107 _072_
*108 _073_
*109 _074_
*110 _075_
*111 _076_
*112 _077_
*113 _078_
*114 _079_
*115 _080_
*116 _081_
*117 _082_
*118 _083_
*119 _084_
*120 _085_
*121 _086_
*122 _087_
*123 _088_
*124 _089_
*125 _090_
*126 _091_
*127 _092_
*128 _093_
*129 _094_
*130 _095_
*131 _096_
*132 _097_
*133 _098_
*134 _099_
*135 _100_
*136 _101_
*137 _102_
*138 _103_
*139 _104_
*140 _105_
*141 _106_
*142 _107_
*143 _108_
*144 _109_
*145 _110_
*146 _111_
*147 _112_
*148 _113_
*149 _114_
*150 _115_
*151 _116_
*152 _117_
*153 _118_
*154 _119_
*155 _120_
*156 _121_
*157 _122_
*158 _123_
*159 _124_
*160 _125_
*161 _126_
*162 _127_
*163 _128_
*164 _129_
*165 _130_
*166 _131_
*167 _132_
*168 _133_
*169 _134_
*170 _135_
*171 _136_
*172 _137_
*173 _138_
*174 _139_
*175 _140_
*176 _141_
*177 _142_
*178 _143_
*179 _144_
*180 _145_
*181 _146_
*182 _147_
*183 _148_
*184 _149_
*185 _150_
*186 _151_
*187 _152_
*188 _153_
*189 _154_
*190 _155_
*191 _156_
*192 _157_
*193 _158_
*194 _159_
*195 _160_
*196 _161_
*197 net1
*198 net10
*199 net11
*200 net12
*201 net13
*202 net14
*203 net15
*204 net16
*205 net17
*206 net18
*207 net19
*208 net2
*209 net20
*210 net21
*211 net22
*212 net23
*213 net24
*214 net25
*215 net26
*216 net27
*217 net28
*218 net29
*219 net3
*220 net30
*221 net31
*222 net32
*223 net4
*224 net5
*225 net6
*226 net7
*227 net8
*228 net9
*229 ANTENNA__181__A
*230 ANTENNA__181__B
*231 ANTENNA__182__B2
*232 ANTENNA__187__B
*233 ANTENNA__187__C
*234 ANTENNA__187__D
*235 ANTENNA__200__B
*236 ANTENNA__201__A1
*237 ANTENNA__201__A2
*238 ANTENNA__201__B2
*239 ANTENNA__203__A
*240 ANTENNA__203__B
*241 ANTENNA__204__A2
*242 ANTENNA__209__A2
*243 ANTENNA__211__A
*244 ANTENNA__211__B
*245 ANTENNA__212__B
*246 ANTENNA__215__B
*247 ANTENNA__216__B
*248 ANTENNA__272__A
*249 ANTENNA__273__A
*250 ANTENNA__276__A
*251 ANTENNA__278__A
*252 ANTENNA__279__A
*253 ANTENNA__281__A
*254 ANTENNA__282__A
*255 ANTENNA__283__A
*256 ANTENNA__284__A
*257 ANTENNA__285__A
*258 ANTENNA__286__A
*259 ANTENNA__287__A
*260 ANTENNA__294__A1
*261 ANTENNA__294__A2
*262 ANTENNA__295__A1
*263 ANTENNA__295__A2
*264 ANTENNA__298__B
*265 ANTENNA__300__A
*266 ANTENNA__300__B
*267 ANTENNA__301__A
*268 ANTENNA__305__A
*269 ANTENNA__306__A
*270 ANTENNA__308__A
*271 ANTENNA__309__A
*272 ANTENNA__312__A
*273 ANTENNA__313__A
*274 ANTENNA__314__A
*275 ANTENNA__314__B
*276 ANTENNA__314__C
*277 ANTENNA__316__A
*278 ANTENNA__317__A
*279 ANTENNA__318__A
*280 ANTENNA__319__A
*281 ANTENNA__320__A
*282 ANTENNA__321__A
*283 ANTENNA__323__A
*284 ANTENNA__324__A
*285 ANTENNA_input10_A
*286 ANTENNA_input11_A
*287 ANTENNA_input12_A
*288 ANTENNA_input13_A
*289 ANTENNA_input14_A
*290 ANTENNA_input15_A
*291 ANTENNA_input16_A
*292 ANTENNA_input1_A
*293 ANTENNA_input2_A
*294 ANTENNA_input3_A
*295 ANTENNA_input4_A
*296 ANTENNA_input5_A
*297 ANTENNA_input6_A
*298 ANTENNA_input7_A
*299 ANTENNA_input8_A
*300 ANTENNA_input9_A
*301 ANTENNA_output17_A
*302 ANTENNA_output18_A
*303 ANTENNA_output19_A
*304 ANTENNA_output20_A
*305 ANTENNA_output21_A
*306 ANTENNA_output22_A
*307 ANTENNA_output23_A
*308 ANTENNA_output24_A
*309 ANTENNA_output25_A
*310 ANTENNA_output26_A
*311 ANTENNA_output27_A
*312 ANTENNA_output28_A
*313 ANTENNA_output29_A
*314 ANTENNA_output30_A
*315 ANTENNA_output31_A
*316 ANTENNA_output32_A
*317 FILLER_0_1005
*318 FILLER_0_1009
*319 FILLER_0_1021
*320 FILLER_0_1033
*321 FILLER_0_1037
*322 FILLER_0_1045
*323 FILLER_0_1049
*324 FILLER_0_1056
*325 FILLER_0_1065
*326 FILLER_0_1077
*327 FILLER_0_1089
*328 FILLER_0_109
*329 FILLER_0_1093
*330 FILLER_0_1105
*331 FILLER_0_1117
*332 FILLER_0_1121
*333 FILLER_0_113
*334 FILLER_0_1133
*335 FILLER_0_1145
*336 FILLER_0_1149
*337 FILLER_0_1161
*338 FILLER_0_1173
*339 FILLER_0_1177
*340 FILLER_0_1189
*341 FILLER_0_1201
*342 FILLER_0_1205
*343 FILLER_0_1217
*344 FILLER_0_1225
*345 FILLER_0_1228
*346 FILLER_0_1243
*347 FILLER_0_125
*348 FILLER_0_1255
*349 FILLER_0_1259
*350 FILLER_0_1261
*351 FILLER_0_1273
*352 FILLER_0_1285
*353 FILLER_0_1289
*354 FILLER_0_1301
*355 FILLER_0_1313
*356 FILLER_0_1317
*357 FILLER_0_1329
*358 FILLER_0_1341
*359 FILLER_0_1345
*360 FILLER_0_1357
*361 FILLER_0_1369
*362 FILLER_0_137
*363 FILLER_0_1373
*364 FILLER_0_1385
*365 FILLER_0_1397
*366 FILLER_0_1403
*367 FILLER_0_141
*368 FILLER_0_1411
*369 FILLER_0_1423
*370 FILLER_0_1427
*371 FILLER_0_1429
*372 FILLER_0_1441
*373 FILLER_0_1453
*374 FILLER_0_1457
*375 FILLER_0_1469
*376 FILLER_0_1481
*377 FILLER_0_1485
*378 FILLER_0_1497
*379 FILLER_0_1509
*380 FILLER_0_1513
*381 FILLER_0_1525
*382 FILLER_0_153
*383 FILLER_0_1537
*384 FILLER_0_1541
*385 FILLER_0_1553
*386 FILLER_0_1565
*387 FILLER_0_1569
*388 FILLER_0_1577
*389 FILLER_0_1581
*390 FILLER_0_1589
*391 FILLER_0_1595
*392 FILLER_0_1597
*393 FILLER_0_1609
*394 FILLER_0_1621
*395 FILLER_0_1625
*396 FILLER_0_1637
*397 FILLER_0_1649
*398 FILLER_0_165
*399 FILLER_0_1653
*400 FILLER_0_1665
*401 FILLER_0_1677
*402 FILLER_0_1681
*403 FILLER_0_1693
*404 FILLER_0_1705
*405 FILLER_0_1709
*406 FILLER_0_1721
*407 FILLER_0_173
*408 FILLER_0_1733
*409 FILLER_0_1737
*410 FILLER_0_1749
*411 FILLER_0_1757
*412 FILLER_0_1760
*413 FILLER_0_1769
*414 FILLER_0_1781
*415 FILLER_0_1789
*416 FILLER_0_179
*417 FILLER_0_1793
*418 FILLER_0_1805
*419 FILLER_0_1817
*420 FILLER_0_1821
*421 FILLER_0_1833
*422 FILLER_0_1845
*423 FILLER_0_1849
*424 FILLER_0_1861
*425 FILLER_0_1873
*426 FILLER_0_1877
*427 FILLER_0_1889
*428 FILLER_0_1901
*429 FILLER_0_1905
*430 FILLER_0_191
*431 FILLER_0_1913
*432 FILLER_0_1917
*433 FILLER_0_1925
*434 FILLER_0_195
*435 FILLER_0_197
*436 FILLER_0_209
*437 FILLER_0_21
*438 FILLER_0_221
*439 FILLER_0_225
*440 FILLER_0_237
*441 FILLER_0_249
*442 FILLER_0_253
*443 FILLER_0_265
*444 FILLER_0_27
*445 FILLER_0_277
*446 FILLER_0_281
*447 FILLER_0_29
*448 FILLER_0_293
*449 FILLER_0_305
*450 FILLER_0_309
*451 FILLER_0_321
*452 FILLER_0_333
*453 FILLER_0_337
*454 FILLER_0_347
*455 FILLER_0_353
*456 FILLER_0_361
*457 FILLER_0_365
*458 FILLER_0_377
*459 FILLER_0_389
*460 FILLER_0_393
*461 FILLER_0_405
*462 FILLER_0_41
*463 FILLER_0_417
*464 FILLER_0_421
*465 FILLER_0_433
*466 FILLER_0_445
*467 FILLER_0_449
*468 FILLER_0_461
*469 FILLER_0_473
*470 FILLER_0_477
*471 FILLER_0_489
*472 FILLER_0_501
*473 FILLER_0_505
*474 FILLER_0_517
*475 FILLER_0_525
*476 FILLER_0_53
*477 FILLER_0_531
*478 FILLER_0_535
*479 FILLER_0_547
*480 FILLER_0_559
*481 FILLER_0_561
*482 FILLER_0_57
*483 FILLER_0_573
*484 FILLER_0_585
*485 FILLER_0_589
*486 FILLER_0_601
*487 FILLER_0_613
*488 FILLER_0_617
*489 FILLER_0_629
*490 FILLER_0_641
*491 FILLER_0_645
*492 FILLER_0_657
*493 FILLER_0_669
*494 FILLER_0_673
*495 FILLER_0_685
*496 FILLER_0_69
*497 FILLER_0_693
*498 FILLER_0_696
*499 FILLER_0_705
*500 FILLER_0_717
*501 FILLER_0_725
*502 FILLER_0_729
*503 FILLER_0_741
*504 FILLER_0_753
*505 FILLER_0_757
*506 FILLER_0_769
*507 FILLER_0_781
*508 FILLER_0_785
*509 FILLER_0_797
*510 FILLER_0_809
*511 FILLER_0_81
*512 FILLER_0_813
*513 FILLER_0_825
*514 FILLER_0_837
*515 FILLER_0_841
*516 FILLER_0_85
*517 FILLER_0_853
*518 FILLER_0_865
*519 FILLER_0_869
*520 FILLER_0_879
*521 FILLER_0_885
*522 FILLER_0_893
*523 FILLER_0_897
*524 FILLER_0_9
*525 FILLER_0_909
*526 FILLER_0_921
*527 FILLER_0_925
*528 FILLER_0_937
*529 FILLER_0_949
*530 FILLER_0_953
*531 FILLER_0_965
*532 FILLER_0_97
*533 FILLER_0_977
*534 FILLER_0_981
*535 FILLER_0_993
*536 FILLER_100_1003
*537 FILLER_100_1009
*538 FILLER_100_1021
*539 FILLER_100_1033
*540 FILLER_100_1037
*541 FILLER_100_1049
*542 FILLER_100_1061
*543 FILLER_100_1073
*544 FILLER_100_1085
*545 FILLER_100_109
*546 FILLER_100_1091
*547 FILLER_100_1093
*548 FILLER_100_1105
*549 FILLER_100_1117
*550 FILLER_100_1129
*551 FILLER_100_1141
*552 FILLER_100_1147
*553 FILLER_100_1149
*554 FILLER_100_1161
*555 FILLER_100_1173
*556 FILLER_100_1185
*557 FILLER_100_1197
*558 FILLER_100_1203
*559 FILLER_100_1205
*560 FILLER_100_121
*561 FILLER_100_1217
*562 FILLER_100_1229
*563 FILLER_100_1241
*564 FILLER_100_1253
*565 FILLER_100_1259
*566 FILLER_100_1261
*567 FILLER_100_1273
*568 FILLER_100_1285
*569 FILLER_100_1297
*570 FILLER_100_1309
*571 FILLER_100_1315
*572 FILLER_100_1317
*573 FILLER_100_1329
*574 FILLER_100_133
*575 FILLER_100_1341
*576 FILLER_100_1353
*577 FILLER_100_1365
*578 FILLER_100_1371
*579 FILLER_100_1373
*580 FILLER_100_1385
*581 FILLER_100_139
*582 FILLER_100_1397
*583 FILLER_100_1409
*584 FILLER_100_141
*585 FILLER_100_1421
*586 FILLER_100_1427
*587 FILLER_100_1429
*588 FILLER_100_1441
*589 FILLER_100_1453
*590 FILLER_100_1465
*591 FILLER_100_1477
*592 FILLER_100_1483
*593 FILLER_100_1485
*594 FILLER_100_1497
*595 FILLER_100_15
*596 FILLER_100_1509
*597 FILLER_100_1521
*598 FILLER_100_153
*599 FILLER_100_1533
*600 FILLER_100_1539
*601 FILLER_100_1541
*602 FILLER_100_1553
*603 FILLER_100_1565
*604 FILLER_100_1577
*605 FILLER_100_1589
*606 FILLER_100_1595
*607 FILLER_100_1597
*608 FILLER_100_1609
*609 FILLER_100_1621
*610 FILLER_100_1633
*611 FILLER_100_1645
*612 FILLER_100_165
*613 FILLER_100_1651
*614 FILLER_100_1653
*615 FILLER_100_1665
*616 FILLER_100_1677
*617 FILLER_100_1689
*618 FILLER_100_1701
*619 FILLER_100_1707
*620 FILLER_100_1709
*621 FILLER_100_1721
*622 FILLER_100_1733
*623 FILLER_100_1745
*624 FILLER_100_1757
*625 FILLER_100_1763
*626 FILLER_100_1765
*627 FILLER_100_177
*628 FILLER_100_1777
*629 FILLER_100_1789
*630 FILLER_100_1801
*631 FILLER_100_1813
*632 FILLER_100_1819
*633 FILLER_100_1821
*634 FILLER_100_1833
*635 FILLER_100_1845
*636 FILLER_100_1857
*637 FILLER_100_1869
*638 FILLER_100_1875
*639 FILLER_100_1877
*640 FILLER_100_1889
*641 FILLER_100_189
*642 FILLER_100_1901
*643 FILLER_100_1913
*644 FILLER_100_1925
*645 FILLER_100_195
*646 FILLER_100_197
*647 FILLER_100_209
*648 FILLER_100_221
*649 FILLER_100_233
*650 FILLER_100_245
*651 FILLER_100_251
*652 FILLER_100_253
*653 FILLER_100_265
*654 FILLER_100_27
*655 FILLER_100_277
*656 FILLER_100_289
*657 FILLER_100_29
*658 FILLER_100_3
*659 FILLER_100_301
*660 FILLER_100_307
*661 FILLER_100_309
*662 FILLER_100_321
*663 FILLER_100_333
*664 FILLER_100_345
*665 FILLER_100_357
*666 FILLER_100_363
*667 FILLER_100_365
*668 FILLER_100_377
*669 FILLER_100_389
*670 FILLER_100_401
*671 FILLER_100_41
*672 FILLER_100_413
*673 FILLER_100_419
*674 FILLER_100_421
*675 FILLER_100_433
*676 FILLER_100_445
*677 FILLER_100_457
*678 FILLER_100_469
*679 FILLER_100_475
*680 FILLER_100_477
*681 FILLER_100_489
*682 FILLER_100_501
*683 FILLER_100_513
*684 FILLER_100_525
*685 FILLER_100_53
*686 FILLER_100_531
*687 FILLER_100_533
*688 FILLER_100_545
*689 FILLER_100_557
*690 FILLER_100_569
*691 FILLER_100_581
*692 FILLER_100_587
*693 FILLER_100_589
*694 FILLER_100_601
*695 FILLER_100_613
*696 FILLER_100_625
*697 FILLER_100_637
*698 FILLER_100_643
*699 FILLER_100_645
*700 FILLER_100_65
*701 FILLER_100_657
*702 FILLER_100_669
*703 FILLER_100_681
*704 FILLER_100_693
*705 FILLER_100_699
*706 FILLER_100_701
*707 FILLER_100_713
*708 FILLER_100_725
*709 FILLER_100_737
*710 FILLER_100_749
*711 FILLER_100_755
*712 FILLER_100_757
*713 FILLER_100_769
*714 FILLER_100_77
*715 FILLER_100_781
*716 FILLER_100_793
*717 FILLER_100_805
*718 FILLER_100_811
*719 FILLER_100_813
*720 FILLER_100_825
*721 FILLER_100_83
*722 FILLER_100_837
*723 FILLER_100_849
*724 FILLER_100_85
*725 FILLER_100_861
*726 FILLER_100_867
*727 FILLER_100_869
*728 FILLER_100_881
*729 FILLER_100_893
*730 FILLER_100_901
*731 FILLER_100_920
*732 FILLER_100_925
*733 FILLER_100_932
*734 FILLER_100_941
*735 FILLER_100_952
*736 FILLER_100_962
*737 FILLER_100_97
*738 FILLER_100_971
*739 FILLER_100_979
*740 FILLER_100_997
*741 FILLER_101_1007
*742 FILLER_101_1011
*743 FILLER_101_1023
*744 FILLER_101_1035
*745 FILLER_101_1047
*746 FILLER_101_105
*747 FILLER_101_1059
*748 FILLER_101_1063
*749 FILLER_101_1065
*750 FILLER_101_1077
*751 FILLER_101_1089
*752 FILLER_101_1101
*753 FILLER_101_111
*754 FILLER_101_1113
*755 FILLER_101_1119
*756 FILLER_101_1121
*757 FILLER_101_113
*758 FILLER_101_1133
*759 FILLER_101_1145
*760 FILLER_101_1157
*761 FILLER_101_1169
*762 FILLER_101_1175
*763 FILLER_101_1177
*764 FILLER_101_1189
*765 FILLER_101_1201
*766 FILLER_101_1213
*767 FILLER_101_1225
*768 FILLER_101_1231
*769 FILLER_101_1233
*770 FILLER_101_1245
*771 FILLER_101_125
*772 FILLER_101_1257
*773 FILLER_101_1269
*774 FILLER_101_1281
*775 FILLER_101_1287
*776 FILLER_101_1289
*777 FILLER_101_1301
*778 FILLER_101_1313
*779 FILLER_101_1325
*780 FILLER_101_1337
*781 FILLER_101_1343
*782 FILLER_101_1345
*783 FILLER_101_1357
*784 FILLER_101_1369
*785 FILLER_101_137
*786 FILLER_101_1381
*787 FILLER_101_1393
*788 FILLER_101_1399
*789 FILLER_101_1401
*790 FILLER_101_1413
*791 FILLER_101_1425
*792 FILLER_101_1437
*793 FILLER_101_1449
*794 FILLER_101_1455
*795 FILLER_101_1457
*796 FILLER_101_1469
*797 FILLER_101_1481
*798 FILLER_101_149
*799 FILLER_101_1493
*800 FILLER_101_15
*801 FILLER_101_1505
*802 FILLER_101_1511
*803 FILLER_101_1513
*804 FILLER_101_1525
*805 FILLER_101_1537
*806 FILLER_101_1549
*807 FILLER_101_1561
*808 FILLER_101_1567
*809 FILLER_101_1569
*810 FILLER_101_1581
*811 FILLER_101_1593
*812 FILLER_101_1605
*813 FILLER_101_161
*814 FILLER_101_1617
*815 FILLER_101_1623
*816 FILLER_101_1625
*817 FILLER_101_1637
*818 FILLER_101_1649
*819 FILLER_101_1661
*820 FILLER_101_167
*821 FILLER_101_1673
*822 FILLER_101_1679
*823 FILLER_101_1681
*824 FILLER_101_169
*825 FILLER_101_1693
*826 FILLER_101_1705
*827 FILLER_101_1717
*828 FILLER_101_1729
*829 FILLER_101_1735
*830 FILLER_101_1737
*831 FILLER_101_1749
*832 FILLER_101_1761
*833 FILLER_101_1773
*834 FILLER_101_1785
*835 FILLER_101_1791
*836 FILLER_101_1793
*837 FILLER_101_1805
*838 FILLER_101_181
*839 FILLER_101_1817
*840 FILLER_101_1829
*841 FILLER_101_1841
*842 FILLER_101_1847
*843 FILLER_101_1849
*844 FILLER_101_1861
*845 FILLER_101_1873
*846 FILLER_101_1885
*847 FILLER_101_1897
*848 FILLER_101_1903
*849 FILLER_101_1905
*850 FILLER_101_1917
*851 FILLER_101_193
*852 FILLER_101_205
*853 FILLER_101_217
*854 FILLER_101_223
*855 FILLER_101_225
*856 FILLER_101_237
*857 FILLER_101_249
*858 FILLER_101_261
*859 FILLER_101_27
*860 FILLER_101_273
*861 FILLER_101_279
*862 FILLER_101_281
*863 FILLER_101_293
*864 FILLER_101_3
*865 FILLER_101_305
*866 FILLER_101_317
*867 FILLER_101_329
*868 FILLER_101_335
*869 FILLER_101_337
*870 FILLER_101_349
*871 FILLER_101_361
*872 FILLER_101_373
*873 FILLER_101_385
*874 FILLER_101_39
*875 FILLER_101_391
*876 FILLER_101_393
*877 FILLER_101_405
*878 FILLER_101_417
*879 FILLER_101_429
*880 FILLER_101_441
*881 FILLER_101_447
*882 FILLER_101_449
*883 FILLER_101_461
*884 FILLER_101_473
*885 FILLER_101_485
*886 FILLER_101_497
*887 FILLER_101_503
*888 FILLER_101_505
*889 FILLER_101_51
*890 FILLER_101_517
*891 FILLER_101_529
*892 FILLER_101_541
*893 FILLER_101_55
*894 FILLER_101_553
*895 FILLER_101_559
*896 FILLER_101_561
*897 FILLER_101_57
*898 FILLER_101_573
*899 FILLER_101_585
*900 FILLER_101_597
*901 FILLER_101_609
*902 FILLER_101_615
*903 FILLER_101_617
*904 FILLER_101_629
*905 FILLER_101_641
*906 FILLER_101_653
*907 FILLER_101_665
*908 FILLER_101_671
*909 FILLER_101_673
*910 FILLER_101_685
*911 FILLER_101_69
*912 FILLER_101_697
*913 FILLER_101_709
*914 FILLER_101_721
*915 FILLER_101_727
*916 FILLER_101_729
*917 FILLER_101_741
*918 FILLER_101_753
*919 FILLER_101_765
*920 FILLER_101_777
*921 FILLER_101_783
*922 FILLER_101_785
*923 FILLER_101_797
*924 FILLER_101_809
*925 FILLER_101_81
*926 FILLER_101_821
*927 FILLER_101_833
*928 FILLER_101_839
*929 FILLER_101_841
*930 FILLER_101_853
*931 FILLER_101_865
*932 FILLER_101_877
*933 FILLER_101_889
*934 FILLER_101_895
*935 FILLER_101_897
*936 FILLER_101_909
*937 FILLER_101_93
*938 FILLER_101_938
*939 FILLER_101_948
*940 FILLER_101_953
*941 FILLER_101_957
*942 FILLER_101_979
*943 FILLER_101_986
*944 FILLER_101_993
*945 FILLER_101_999
*946 FILLER_102_1002
*947 FILLER_102_1008
*948 FILLER_102_1014
*949 FILLER_102_1026
*950 FILLER_102_1034
*951 FILLER_102_1037
*952 FILLER_102_1049
*953 FILLER_102_1061
*954 FILLER_102_1073
*955 FILLER_102_1085
*956 FILLER_102_109
*957 FILLER_102_1091
*958 FILLER_102_1093
*959 FILLER_102_1105
*960 FILLER_102_1117
*961 FILLER_102_1129
*962 FILLER_102_1141
*963 FILLER_102_1147
*964 FILLER_102_1149
*965 FILLER_102_1161
*966 FILLER_102_1173
*967 FILLER_102_1185
*968 FILLER_102_1197
*969 FILLER_102_1203
*970 FILLER_102_1205
*971 FILLER_102_121
*972 FILLER_102_1217
*973 FILLER_102_1229
*974 FILLER_102_1241
*975 FILLER_102_1253
*976 FILLER_102_1259
*977 FILLER_102_1261
*978 FILLER_102_1273
*979 FILLER_102_1285
*980 FILLER_102_1297
*981 FILLER_102_1309
*982 FILLER_102_1315
*983 FILLER_102_1317
*984 FILLER_102_1329
*985 FILLER_102_133
*986 FILLER_102_1341
*987 FILLER_102_1353
*988 FILLER_102_1365
*989 FILLER_102_1371
*990 FILLER_102_1373
*991 FILLER_102_1385
*992 FILLER_102_139
*993 FILLER_102_1397
*994 FILLER_102_1409
*995 FILLER_102_141
*996 FILLER_102_1421
*997 FILLER_102_1427
*998 FILLER_102_1429
*999 FILLER_102_1441
*1000 FILLER_102_1453
*1001 FILLER_102_1465
*1002 FILLER_102_1477
*1003 FILLER_102_1483
*1004 FILLER_102_1485
*1005 FILLER_102_1497
*1006 FILLER_102_15
*1007 FILLER_102_1509
*1008 FILLER_102_1521
*1009 FILLER_102_153
*1010 FILLER_102_1533
*1011 FILLER_102_1539
*1012 FILLER_102_1541
*1013 FILLER_102_1553
*1014 FILLER_102_1565
*1015 FILLER_102_1577
*1016 FILLER_102_1589
*1017 FILLER_102_1595
*1018 FILLER_102_1597
*1019 FILLER_102_1609
*1020 FILLER_102_1621
*1021 FILLER_102_1633
*1022 FILLER_102_1645
*1023 FILLER_102_165
*1024 FILLER_102_1651
*1025 FILLER_102_1653
*1026 FILLER_102_1665
*1027 FILLER_102_1677
*1028 FILLER_102_1689
*1029 FILLER_102_1701
*1030 FILLER_102_1707
*1031 FILLER_102_1709
*1032 FILLER_102_1721
*1033 FILLER_102_1733
*1034 FILLER_102_1745
*1035 FILLER_102_1757
*1036 FILLER_102_1763
*1037 FILLER_102_1765
*1038 FILLER_102_177
*1039 FILLER_102_1777
*1040 FILLER_102_1789
*1041 FILLER_102_1801
*1042 FILLER_102_1813
*1043 FILLER_102_1819
*1044 FILLER_102_1821
*1045 FILLER_102_1833
*1046 FILLER_102_1845
*1047 FILLER_102_1857
*1048 FILLER_102_1869
*1049 FILLER_102_1875
*1050 FILLER_102_1877
*1051 FILLER_102_1889
*1052 FILLER_102_189
*1053 FILLER_102_1901
*1054 FILLER_102_1913
*1055 FILLER_102_1925
*1056 FILLER_102_195
*1057 FILLER_102_197
*1058 FILLER_102_209
*1059 FILLER_102_221
*1060 FILLER_102_233
*1061 FILLER_102_245
*1062 FILLER_102_251
*1063 FILLER_102_253
*1064 FILLER_102_265
*1065 FILLER_102_27
*1066 FILLER_102_277
*1067 FILLER_102_289
*1068 FILLER_102_29
*1069 FILLER_102_3
*1070 FILLER_102_301
*1071 FILLER_102_307
*1072 FILLER_102_309
*1073 FILLER_102_321
*1074 FILLER_102_333
*1075 FILLER_102_345
*1076 FILLER_102_357
*1077 FILLER_102_363
*1078 FILLER_102_365
*1079 FILLER_102_377
*1080 FILLER_102_389
*1081 FILLER_102_401
*1082 FILLER_102_41
*1083 FILLER_102_413
*1084 FILLER_102_419
*1085 FILLER_102_421
*1086 FILLER_102_433
*1087 FILLER_102_445
*1088 FILLER_102_457
*1089 FILLER_102_469
*1090 FILLER_102_475
*1091 FILLER_102_477
*1092 FILLER_102_489
*1093 FILLER_102_501
*1094 FILLER_102_513
*1095 FILLER_102_525
*1096 FILLER_102_53
*1097 FILLER_102_531
*1098 FILLER_102_533
*1099 FILLER_102_545
*1100 FILLER_102_557
*1101 FILLER_102_569
*1102 FILLER_102_581
*1103 FILLER_102_587
*1104 FILLER_102_589
*1105 FILLER_102_601
*1106 FILLER_102_613
*1107 FILLER_102_625
*1108 FILLER_102_637
*1109 FILLER_102_643
*1110 FILLER_102_645
*1111 FILLER_102_65
*1112 FILLER_102_657
*1113 FILLER_102_669
*1114 FILLER_102_681
*1115 FILLER_102_693
*1116 FILLER_102_699
*1117 FILLER_102_701
*1118 FILLER_102_713
*1119 FILLER_102_725
*1120 FILLER_102_737
*1121 FILLER_102_749
*1122 FILLER_102_755
*1123 FILLER_102_757
*1124 FILLER_102_769
*1125 FILLER_102_77
*1126 FILLER_102_781
*1127 FILLER_102_793
*1128 FILLER_102_805
*1129 FILLER_102_811
*1130 FILLER_102_813
*1131 FILLER_102_825
*1132 FILLER_102_83
*1133 FILLER_102_837
*1134 FILLER_102_849
*1135 FILLER_102_85
*1136 FILLER_102_861
*1137 FILLER_102_867
*1138 FILLER_102_869
*1139 FILLER_102_881
*1140 FILLER_102_893
*1141 FILLER_102_905
*1142 FILLER_102_909
*1143 FILLER_102_913
*1144 FILLER_102_920
*1145 FILLER_102_928
*1146 FILLER_102_942
*1147 FILLER_102_954
*1148 FILLER_102_965
*1149 FILLER_102_97
*1150 FILLER_102_976
*1151 FILLER_102_986
*1152 FILLER_102_994
*1153 FILLER_103_1000
*1154 FILLER_103_1012
*1155 FILLER_103_1018
*1156 FILLER_103_1024
*1157 FILLER_103_1036
*1158 FILLER_103_1048
*1159 FILLER_103_105
*1160 FILLER_103_1060
*1161 FILLER_103_1065
*1162 FILLER_103_1077
*1163 FILLER_103_1089
*1164 FILLER_103_1101
*1165 FILLER_103_111
*1166 FILLER_103_1113
*1167 FILLER_103_1119
*1168 FILLER_103_1121
*1169 FILLER_103_113
*1170 FILLER_103_1133
*1171 FILLER_103_1145
*1172 FILLER_103_1157
*1173 FILLER_103_1169
*1174 FILLER_103_1175
*1175 FILLER_103_1177
*1176 FILLER_103_1189
*1177 FILLER_103_1201
*1178 FILLER_103_1213
*1179 FILLER_103_1225
*1180 FILLER_103_1231
*1181 FILLER_103_1233
*1182 FILLER_103_1245
*1183 FILLER_103_125
*1184 FILLER_103_1257
*1185 FILLER_103_1269
*1186 FILLER_103_1281
*1187 FILLER_103_1287
*1188 FILLER_103_1289
*1189 FILLER_103_1301
*1190 FILLER_103_1313
*1191 FILLER_103_1325
*1192 FILLER_103_1337
*1193 FILLER_103_1343
*1194 FILLER_103_1345
*1195 FILLER_103_1357
*1196 FILLER_103_1369
*1197 FILLER_103_137
*1198 FILLER_103_1381
*1199 FILLER_103_1393
*1200 FILLER_103_1399
*1201 FILLER_103_1401
*1202 FILLER_103_1413
*1203 FILLER_103_1425
*1204 FILLER_103_1437
*1205 FILLER_103_1449
*1206 FILLER_103_1455
*1207 FILLER_103_1457
*1208 FILLER_103_1469
*1209 FILLER_103_1481
*1210 FILLER_103_149
*1211 FILLER_103_1493
*1212 FILLER_103_15
*1213 FILLER_103_1505
*1214 FILLER_103_1511
*1215 FILLER_103_1513
*1216 FILLER_103_1525
*1217 FILLER_103_1537
*1218 FILLER_103_1549
*1219 FILLER_103_1561
*1220 FILLER_103_1567
*1221 FILLER_103_1569
*1222 FILLER_103_1581
*1223 FILLER_103_1593
*1224 FILLER_103_1605
*1225 FILLER_103_161
*1226 FILLER_103_1617
*1227 FILLER_103_1623
*1228 FILLER_103_1625
*1229 FILLER_103_1637
*1230 FILLER_103_1649
*1231 FILLER_103_1661
*1232 FILLER_103_167
*1233 FILLER_103_1673
*1234 FILLER_103_1679
*1235 FILLER_103_1681
*1236 FILLER_103_169
*1237 FILLER_103_1693
*1238 FILLER_103_1705
*1239 FILLER_103_1717
*1240 FILLER_103_1729
*1241 FILLER_103_1735
*1242 FILLER_103_1737
*1243 FILLER_103_1749
*1244 FILLER_103_1761
*1245 FILLER_103_1773
*1246 FILLER_103_1785
*1247 FILLER_103_1791
*1248 FILLER_103_1793
*1249 FILLER_103_1805
*1250 FILLER_103_181
*1251 FILLER_103_1817
*1252 FILLER_103_1829
*1253 FILLER_103_1841
*1254 FILLER_103_1847
*1255 FILLER_103_1849
*1256 FILLER_103_1861
*1257 FILLER_103_1873
*1258 FILLER_103_1885
*1259 FILLER_103_1897
*1260 FILLER_103_1903
*1261 FILLER_103_1905
*1262 FILLER_103_1917
*1263 FILLER_103_193
*1264 FILLER_103_205
*1265 FILLER_103_217
*1266 FILLER_103_223
*1267 FILLER_103_225
*1268 FILLER_103_237
*1269 FILLER_103_249
*1270 FILLER_103_261
*1271 FILLER_103_27
*1272 FILLER_103_273
*1273 FILLER_103_279
*1274 FILLER_103_281
*1275 FILLER_103_293
*1276 FILLER_103_3
*1277 FILLER_103_305
*1278 FILLER_103_317
*1279 FILLER_103_329
*1280 FILLER_103_335
*1281 FILLER_103_337
*1282 FILLER_103_349
*1283 FILLER_103_361
*1284 FILLER_103_373
*1285 FILLER_103_385
*1286 FILLER_103_39
*1287 FILLER_103_391
*1288 FILLER_103_393
*1289 FILLER_103_405
*1290 FILLER_103_417
*1291 FILLER_103_429
*1292 FILLER_103_441
*1293 FILLER_103_447
*1294 FILLER_103_449
*1295 FILLER_103_461
*1296 FILLER_103_473
*1297 FILLER_103_485
*1298 FILLER_103_497
*1299 FILLER_103_503
*1300 FILLER_103_505
*1301 FILLER_103_51
*1302 FILLER_103_517
*1303 FILLER_103_529
*1304 FILLER_103_541
*1305 FILLER_103_55
*1306 FILLER_103_553
*1307 FILLER_103_559
*1308 FILLER_103_561
*1309 FILLER_103_57
*1310 FILLER_103_573
*1311 FILLER_103_585
*1312 FILLER_103_597
*1313 FILLER_103_609
*1314 FILLER_103_615
*1315 FILLER_103_617
*1316 FILLER_103_629
*1317 FILLER_103_641
*1318 FILLER_103_653
*1319 FILLER_103_665
*1320 FILLER_103_671
*1321 FILLER_103_673
*1322 FILLER_103_685
*1323 FILLER_103_69
*1324 FILLER_103_697
*1325 FILLER_103_709
*1326 FILLER_103_721
*1327 FILLER_103_727
*1328 FILLER_103_729
*1329 FILLER_103_741
*1330 FILLER_103_753
*1331 FILLER_103_765
*1332 FILLER_103_777
*1333 FILLER_103_783
*1334 FILLER_103_785
*1335 FILLER_103_797
*1336 FILLER_103_809
*1337 FILLER_103_81
*1338 FILLER_103_821
*1339 FILLER_103_833
*1340 FILLER_103_839
*1341 FILLER_103_841
*1342 FILLER_103_853
*1343 FILLER_103_865
*1344 FILLER_103_877
*1345 FILLER_103_889
*1346 FILLER_103_895
*1347 FILLER_103_897
*1348 FILLER_103_903
*1349 FILLER_103_910
*1350 FILLER_103_921
*1351 FILLER_103_93
*1352 FILLER_103_932
*1353 FILLER_103_944
*1354 FILLER_103_961
*1355 FILLER_103_973
*1356 FILLER_103_984
*1357 FILLER_103_993
*1358 FILLER_104_1006
*1359 FILLER_104_1013
*1360 FILLER_104_1020
*1361 FILLER_104_1026
*1362 FILLER_104_1032
*1363 FILLER_104_1037
*1364 FILLER_104_1049
*1365 FILLER_104_1061
*1366 FILLER_104_1073
*1367 FILLER_104_1085
*1368 FILLER_104_109
*1369 FILLER_104_1091
*1370 FILLER_104_1093
*1371 FILLER_104_1105
*1372 FILLER_104_1117
*1373 FILLER_104_1129
*1374 FILLER_104_1141
*1375 FILLER_104_1147
*1376 FILLER_104_1149
*1377 FILLER_104_1161
*1378 FILLER_104_1173
*1379 FILLER_104_1185
*1380 FILLER_104_1197
*1381 FILLER_104_1203
*1382 FILLER_104_1205
*1383 FILLER_104_121
*1384 FILLER_104_1217
*1385 FILLER_104_1229
*1386 FILLER_104_1241
*1387 FILLER_104_1253
*1388 FILLER_104_1259
*1389 FILLER_104_1261
*1390 FILLER_104_1273
*1391 FILLER_104_1285
*1392 FILLER_104_1297
*1393 FILLER_104_1309
*1394 FILLER_104_1315
*1395 FILLER_104_1317
*1396 FILLER_104_1329
*1397 FILLER_104_133
*1398 FILLER_104_1341
*1399 FILLER_104_1353
*1400 FILLER_104_1365
*1401 FILLER_104_1371
*1402 FILLER_104_1373
*1403 FILLER_104_1385
*1404 FILLER_104_139
*1405 FILLER_104_1397
*1406 FILLER_104_1409
*1407 FILLER_104_141
*1408 FILLER_104_1421
*1409 FILLER_104_1427
*1410 FILLER_104_1429
*1411 FILLER_104_1441
*1412 FILLER_104_1453
*1413 FILLER_104_1465
*1414 FILLER_104_1477
*1415 FILLER_104_1483
*1416 FILLER_104_1485
*1417 FILLER_104_1497
*1418 FILLER_104_15
*1419 FILLER_104_1509
*1420 FILLER_104_1521
*1421 FILLER_104_153
*1422 FILLER_104_1533
*1423 FILLER_104_1539
*1424 FILLER_104_1541
*1425 FILLER_104_1553
*1426 FILLER_104_1565
*1427 FILLER_104_1577
*1428 FILLER_104_1589
*1429 FILLER_104_1595
*1430 FILLER_104_1597
*1431 FILLER_104_1609
*1432 FILLER_104_1621
*1433 FILLER_104_1633
*1434 FILLER_104_1645
*1435 FILLER_104_165
*1436 FILLER_104_1651
*1437 FILLER_104_1653
*1438 FILLER_104_1665
*1439 FILLER_104_1677
*1440 FILLER_104_1689
*1441 FILLER_104_1701
*1442 FILLER_104_1707
*1443 FILLER_104_1709
*1444 FILLER_104_1721
*1445 FILLER_104_1733
*1446 FILLER_104_1745
*1447 FILLER_104_1757
*1448 FILLER_104_1763
*1449 FILLER_104_1765
*1450 FILLER_104_177
*1451 FILLER_104_1777
*1452 FILLER_104_1789
*1453 FILLER_104_1801
*1454 FILLER_104_1813
*1455 FILLER_104_1819
*1456 FILLER_104_1821
*1457 FILLER_104_1833
*1458 FILLER_104_1845
*1459 FILLER_104_1857
*1460 FILLER_104_1869
*1461 FILLER_104_1875
*1462 FILLER_104_1877
*1463 FILLER_104_1889
*1464 FILLER_104_189
*1465 FILLER_104_1901
*1466 FILLER_104_1913
*1467 FILLER_104_1925
*1468 FILLER_104_195
*1469 FILLER_104_197
*1470 FILLER_104_209
*1471 FILLER_104_221
*1472 FILLER_104_233
*1473 FILLER_104_245
*1474 FILLER_104_251
*1475 FILLER_104_253
*1476 FILLER_104_265
*1477 FILLER_104_27
*1478 FILLER_104_277
*1479 FILLER_104_289
*1480 FILLER_104_29
*1481 FILLER_104_3
*1482 FILLER_104_301
*1483 FILLER_104_307
*1484 FILLER_104_309
*1485 FILLER_104_321
*1486 FILLER_104_333
*1487 FILLER_104_345
*1488 FILLER_104_357
*1489 FILLER_104_363
*1490 FILLER_104_365
*1491 FILLER_104_377
*1492 FILLER_104_389
*1493 FILLER_104_401
*1494 FILLER_104_41
*1495 FILLER_104_413
*1496 FILLER_104_419
*1497 FILLER_104_421
*1498 FILLER_104_433
*1499 FILLER_104_445
*1500 FILLER_104_457
*1501 FILLER_104_469
*1502 FILLER_104_475
*1503 FILLER_104_477
*1504 FILLER_104_489
*1505 FILLER_104_501
*1506 FILLER_104_513
*1507 FILLER_104_525
*1508 FILLER_104_53
*1509 FILLER_104_531
*1510 FILLER_104_533
*1511 FILLER_104_545
*1512 FILLER_104_557
*1513 FILLER_104_569
*1514 FILLER_104_581
*1515 FILLER_104_587
*1516 FILLER_104_589
*1517 FILLER_104_601
*1518 FILLER_104_613
*1519 FILLER_104_625
*1520 FILLER_104_637
*1521 FILLER_104_643
*1522 FILLER_104_645
*1523 FILLER_104_65
*1524 FILLER_104_657
*1525 FILLER_104_669
*1526 FILLER_104_681
*1527 FILLER_104_693
*1528 FILLER_104_699
*1529 FILLER_104_701
*1530 FILLER_104_713
*1531 FILLER_104_725
*1532 FILLER_104_737
*1533 FILLER_104_749
*1534 FILLER_104_755
*1535 FILLER_104_757
*1536 FILLER_104_769
*1537 FILLER_104_77
*1538 FILLER_104_781
*1539 FILLER_104_793
*1540 FILLER_104_805
*1541 FILLER_104_811
*1542 FILLER_104_813
*1543 FILLER_104_825
*1544 FILLER_104_83
*1545 FILLER_104_837
*1546 FILLER_104_849
*1547 FILLER_104_85
*1548 FILLER_104_861
*1549 FILLER_104_867
*1550 FILLER_104_869
*1551 FILLER_104_881
*1552 FILLER_104_893
*1553 FILLER_104_901
*1554 FILLER_104_910